PV-ING fuentes/psat2.1.8/tests/d_003_uc_mdl.cf
 05/21/14 PSAT ARCHIVE         100.00 2014 S 3-Bus 3-Line System                                                                
BUS DATA FOLLOW                         3 ITEMS                                                                                 
   1  Bus1         1  0  3 1.0000  0.000   0.0000    0.0000  40.000   0.000  400.00 1.0000  150.00 -150.00  0.0000  0.0000    1
   2  Bus2         1  0  2 1.0000  0.000   0.0000    0.0000  40.000   0.000  400.00 1.0000   80.00  -20.00  0.0000  0.0000    2
   3  Bus3         1  0  2 1.0000  0.000 100.0000   60.0000  40.000   0.000  400.00 1.0000   80.00  -20.00  0.0000  0.0000    3
-999
BRANCH DATA FOLLOW                      3 ITEMS                                                                                 
   1    2  1 1  1 0 0.0000000 0.10000000 0.0000000   40     0     0    0 0  0.0000   0.000 0.0000 0.0000 0.0000  0.0000 0.0000
   1    3  1 1  1 0 0.0000000 0.10000000 0.0000000   40     0     0    0 0  0.0000   0.000 0.0000 0.0000 0.0000  0.0000 0.0000
   2    3  1 1  1 0 0.0000000 0.10000000 0.0000000   40     0     0    0 0  0.0000   0.000 0.0000 0.0000 0.0000  0.0000 0.0000
-999
LOSS ZONES FOLLOW                       1 ITEMS                                                                                 
  1 3-Bus       
-99
INTERCHANGE DATA FOLLOW                 1 ITEMS                                                                                 
 1    1 Bus1            0.00 999.99  3Bus    3-Bus 3-Line System           
-9
TIE LINES FOLLOW                        0 ITEMS                                                                                 
-999
END OF DATA 